/*--------------------------------*- C++ -*----------------------------------*\
| =========                 |                                                 |
| \\      /  F ield         | OpenFOAM: The Open Source CFD Toolbox           |
|  \\    /   O peration     | Version:  v1806                                 |
|   \\  /    A nd           | Web:      www.OpenFOAM.com                      |
|    \\/     M anipulation  |                                                 |
\*---------------------------------------------------------------------------*/
FoamFile
{
    version     2.0;
    format      ascii;
    class       volScalarField;
    location    "0";
    object      nu0;
}
// * * * * * * * * * * * * * * * * * * * * * * * * * * * * * * * * * * * * * //

dimensions      [0 2 -1 0 0 0 0];

internalField		uniform 1e-5;

boundaryField
{
    top
    {
        type            fixedValue;
	value		$internalField;
    }
    hills
    {
     	type            fixedValue;
        value	        $internalField;
    }
    "(inlet|outlet)"
    {
        type            cyclic;
    }
    "(front|back)"
    {
        type            empty;
    }
}

// ************************************************************************* //
