/*--------------------------------*- C++ -*----------------------------------*\
| =========                 |                                                 |
| \\      /  F ield         | OpenFOAM: The Open Source CFD Toolbox           |
|  \\    /   O peration     | Version:  v2106                                 |
|   \\  /    A nd           | Website:  www.openfoam.com                      |
|    \\/     M anipulation  |                                                 |
\*---------------------------------------------------------------------------*/
FoamFile
{
    version     2.0;
    format      ascii;
    arch        "LSB;label=32;scalar=64";
    class       polyBoundaryMesh;
    location    "constant/polyMesh";
    object      boundary;
}
// * * * * * * * * * * * * * * * * * * * * * * * * * * * * * * * * * * * * * //

6
(
    inlet
    {
        type            cyclic;
        inGroups        1(cyclic);
        nFaces          80;
        startFace       15820;
        matchTolerance  0.0001;
        transform       unknown;
        neighbourPatch  outlet;
    }
    outlet
    {
        type            cyclic;
        inGroups        1(cyclic);
        nFaces          80;
        startFace       15900;
        matchTolerance  0.0001;
        transform       unknown;
        neighbourPatch  inlet;
    }
    top
    {
        type            wall;
        inGroups        1(wall);
        nFaces          100;
        startFace       15980;
    }
    hills
    {
        type            wall;
        inGroups        1(wall);
        nFaces          100;
        startFace       16080;
    }
    front
    {
        type            empty;
        inGroups        1(empty);
        nFaces          8000;
        startFace       16180;
    }
    back
    {
        type            empty;
        inGroups        1(empty);
        nFaces          8000;
        startFace       24180;
    }
)

// ************************************************************************* //
