/*--------------------------------*- C++ -*----------------------------------*\
| =========                 |                                                 |
| \\      /  F ield         | OpenFOAM: The Open Source CFD Toolbox           |
|  \\    /   O peration     | Version:  2.1.0                                 |
|   \\  /    A nd           | Web:      www.OpenFOAM.org                      |
|    \\/     M anipulation  |                                                 |
\*---------------------------------------------------------------------------*/
FoamFile
{
    version     2.0;
    format      ascii;
    class       dictionary;
    object      postSpanwiseAverageDict;
}
// * * * * * * * * * * * * * * * * * * * * * * * * * * * * * * * * * * * * * //

// Seed patches to start averaging from
patches (front back);

// Homogeneous direction in which to perform averaging
component z;

// Non-homogeneous directions
componentAlt1 x;
componentAlt2 y;

fields  ( 
		p U nut
		pMean UMean nutMean
		
		pMean0 pMeanSigma 
		nutMean0 nutMeanSigma
		UMean0 UMeanSigma  
		RMean0 RMeanSigma
		
		tauWMean0
    		tauWMeanSigma

	);
		
// ************************************************************************* //
