/*--------------------------------*- C++ -*----------------------------------*\
| =========                 |                                                 |
| \\      /  F ield         | OpenFOAM: The Open Source CFD Toolbox           |
|  \\    /   O peration     | Version:  v1806                                 |
|   \\  /    A nd           | Web:      www.OpenFOAM.com                      |
|    \\/     M anipulation  |                                                 |
\*---------------------------------------------------------------------------*/
FoamFile
{
    version     2.0;
    format      ascii;
    class       dictionary;
    location    "constant";
    object      uqInfo;
}
// * * * * * * * * * * * * * * * * * * * * * * * * * * * * * * * * * * * * * //

// Type of random field

randField	REVF;

// Number of dimensions

d	18;

// Number of modes

P	54;



// Exponent matrix basis functions

expoMat[1][5]	1;
expoMat[2][6]	1;
expoMat[3][3]	1;
expoMat[4][7]	1;
expoMat[5][8]	1;
expoMat[6][9]	1;
expoMat[7][10]	1;
expoMat[8][2]	1;
expoMat[9][11]	1;
expoMat[10][12]	1;
expoMat[11][13]	1;
expoMat[12][4]	1;
expoMat[13][17]	1;
expoMat[14][14]	1;
expoMat[15][0]	1;
expoMat[16][16]	1;
expoMat[17][15]	1;
expoMat[18][1]	1;
expoMat[19][14]	2;
expoMat[20][5]	2;
expoMat[21][6]	2;
expoMat[22][17]	2;
expoMat[23][7]	2;
expoMat[24][3]	2;
expoMat[25][8]	2;
expoMat[26][16]	2;
expoMat[27][9]	2;
expoMat[28][10]	2;
expoMat[29][15]	2;
expoMat[30][4]	2;
expoMat[31][1]	2;
expoMat[32][2]	2;
expoMat[33][12]	2;
expoMat[34][13]	2;
expoMat[35][0]	2;
expoMat[36][11]	2;
expoMat[37][1]	3;
expoMat[38][3]	3;
expoMat[39][4]	3;
expoMat[40][2]	3;
expoMat[41][9]	3;
expoMat[42][6]	3;
expoMat[43][7]	3;
expoMat[44][8]	3;
expoMat[45][10]	3;
expoMat[46][11]	3;
expoMat[47][12]	3;
expoMat[48][13]	3;
expoMat[49][14]	3;
expoMat[50][15]	3;
expoMat[51][16]	3;
expoMat[52][17]	3;
expoMat[53][5]	3;
expoMat[54][0]	3;


// Quad product of basis function k with itself 

M[0]	1.0;
M[1]	1.0;
M[2]	1.0;
M[3]	1.0;
M[4]	1.0;
M[5]	1.0;
M[6]	1.0;
M[7]	1.0;
M[8]	1.0;
M[9]	1.0;
M[10]	1.0;
M[11]	1.0;
M[12]	1.0;
M[13]	1.0;
M[14]	1.0;
M[15]	1.0;
M[16]	1.0;
M[17]	1.0;
M[18]	1.0;
M[19]	0.9999999999999999;
M[20]	0.9999999999999999;
M[21]	0.9999999999999999;
M[22]	0.9999999999999999;
M[23]	0.9999999999999999;
M[24]	0.9999999999999999;
M[25]	0.9999999999999999;
M[26]	0.9999999999999999;
M[27]	0.9999999999999999;
M[28]	0.9999999999999999;
M[29]	0.9999999999999999;
M[30]	0.9999999999999999;
M[31]	0.9999999999999999;
M[32]	0.9999999999999999;
M[33]	0.9999999999999999;
M[34]	0.9999999999999999;
M[35]	0.9999999999999999;
M[36]	0.9999999999999999;
M[37]	1.0000000000000002;
M[38]	1.0000000000000002;
M[39]	1.0000000000000002;
M[40]	1.0000000000000002;
M[41]	1.0000000000000002;
M[42]	1.0000000000000002;
M[43]	1.0000000000000002;
M[44]	1.0000000000000002;
M[45]	1.0000000000000002;
M[46]	1.0000000000000002;
M[47]	1.0000000000000002;
M[48]	1.0000000000000002;
M[49]	1.0000000000000002;
M[50]	1.0000000000000002;
M[51]	1.0000000000000002;
M[52]	1.0000000000000002;
M[53]	1.0000000000000002;
M[54]	1.0000000000000002;


// Triple product of basis functions

M[0][0][0]	1.0;
M[0][1][1]	1.0;
M[0][2][2]	1.0;
M[0][3][3]	1.0;
M[0][4][4]	1.0;
M[0][5][5]	1.0;
M[0][6][6]	1.0;
M[0][7][7]	1.0;
M[0][8][8]	1.0;
M[0][9][9]	1.0;
M[0][10][10]	1.0;
M[0][11][11]	1.0;
M[0][12][12]	1.0;
M[0][13][13]	1.0;
M[0][14][14]	1.0;
M[0][15][15]	1.0;
M[0][16][16]	1.0;
M[0][17][17]	1.0;
M[0][18][18]	1.0;
M[0][19][19]	0.9999999999999999;
M[0][20][20]	0.9999999999999999;
M[0][21][21]	0.9999999999999999;
M[0][22][22]	0.9999999999999999;
M[0][23][23]	0.9999999999999999;
M[0][24][24]	0.9999999999999999;
M[0][25][25]	0.9999999999999999;
M[0][26][26]	0.9999999999999999;
M[0][27][27]	0.9999999999999999;
M[0][28][28]	0.9999999999999999;
M[0][29][29]	0.9999999999999999;
M[0][30][30]	0.9999999999999999;
M[0][31][31]	0.9999999999999999;
M[0][32][32]	0.9999999999999999;
M[0][33][33]	0.9999999999999999;
M[0][34][34]	0.9999999999999999;
M[0][35][35]	0.9999999999999999;
M[0][36][36]	0.9999999999999999;
M[0][37][37]	1.0000000000000002;
M[0][38][38]	1.0000000000000002;
M[0][39][39]	1.0000000000000002;
M[0][40][40]	1.0000000000000002;
M[0][41][41]	1.0000000000000002;
M[0][42][42]	1.0000000000000002;
M[0][43][43]	1.0000000000000002;
M[0][44][44]	1.0000000000000002;
M[0][45][45]	1.0000000000000002;
M[0][46][46]	1.0000000000000002;
M[0][47][47]	1.0000000000000002;
M[0][48][48]	1.0000000000000002;
M[0][49][49]	1.0000000000000002;
M[0][50][50]	1.0000000000000002;
M[0][51][51]	1.0000000000000002;
M[0][52][52]	1.0000000000000002;
M[0][53][53]	1.0000000000000002;
M[0][54][54]	1.0000000000000002;
M[1][0][1]	1.0;
M[1][1][0]	1.0;
M[1][1][20]	1.4142135623730954;
M[1][20][1]	1.4142135623730954;
M[1][20][53]	1.7320508075688785;
M[1][53][20]	1.7320508075688785;
M[2][0][2]	1.0;
M[2][2][0]	1.0;
M[2][2][21]	1.4142135623730954;
M[2][21][2]	1.4142135623730954;
M[2][21][42]	1.7320508075688785;
M[2][42][21]	1.7320508075688785;
M[3][0][3]	1.0;
M[3][3][0]	1.0;
M[3][3][24]	1.4142135623730954;
M[3][24][3]	1.4142135623730954;
M[3][24][38]	1.7320508075688785;
M[3][38][24]	1.7320508075688785;
M[4][0][4]	1.0;
M[4][4][0]	1.0;
M[4][4][23]	1.4142135623730954;
M[4][23][4]	1.4142135623730954;
M[4][23][43]	1.7320508075688785;
M[4][43][23]	1.7320508075688785;
M[5][0][5]	1.0;
M[5][5][0]	1.0;
M[5][5][25]	1.4142135623730954;
M[5][25][5]	1.4142135623730954;
M[5][25][44]	1.7320508075688785;
M[5][44][25]	1.7320508075688785;
M[6][0][6]	1.0;
M[6][6][0]	1.0;
M[6][6][27]	1.4142135623730954;
M[6][27][6]	1.4142135623730954;
M[6][27][41]	1.7320508075688785;
M[6][41][27]	1.7320508075688785;
M[7][0][7]	1.0;
M[7][7][0]	1.0;
M[7][7][28]	1.4142135623730954;
M[7][28][7]	1.4142135623730954;
M[7][28][45]	1.7320508075688785;
M[7][45][28]	1.7320508075688785;
M[8][0][8]	1.0;
M[8][8][0]	1.0;
M[8][8][32]	1.4142135623730954;
M[8][32][8]	1.4142135623730954;
M[8][32][40]	1.7320508075688785;
M[8][40][32]	1.7320508075688785;
M[9][0][9]	1.0;
M[9][9][0]	1.0;
M[9][9][36]	1.4142135623730954;
M[9][36][9]	1.4142135623730954;
M[9][36][46]	1.7320508075688785;
M[9][46][36]	1.7320508075688785;
M[10][0][10]	1.0;
M[10][10][0]	1.0;
M[10][10][33]	1.4142135623730954;
M[10][33][10]	1.4142135623730954;
M[10][33][47]	1.7320508075688785;
M[10][47][33]	1.7320508075688785;
M[11][0][11]	1.0;
M[11][11][0]	1.0;
M[11][11][34]	1.4142135623730954;
M[11][34][11]	1.4142135623730954;
M[11][34][48]	1.7320508075688785;
M[11][48][34]	1.7320508075688785;
M[12][0][12]	1.0;
M[12][12][0]	1.0;
M[12][12][30]	1.4142135623730954;
M[12][30][12]	1.4142135623730954;
M[12][30][39]	1.7320508075688785;
M[12][39][30]	1.7320508075688785;
M[13][0][13]	1.0;
M[13][13][0]	1.0;
M[13][13][22]	1.4142135623730954;
M[13][22][13]	1.4142135623730954;
M[13][22][52]	1.7320508075688785;
M[13][52][22]	1.7320508075688785;
M[14][0][14]	1.0;
M[14][14][0]	1.0;
M[14][14][19]	1.4142135623730954;
M[14][19][14]	1.4142135623730954;
M[14][19][49]	1.7320508075688785;
M[14][49][19]	1.7320508075688785;
M[15][0][15]	1.0;
M[15][15][0]	1.0;
M[15][15][35]	1.4142135623730954;
M[15][35][15]	1.4142135623730954;
M[15][35][54]	1.7320508075688785;
M[15][54][35]	1.7320508075688785;
M[16][0][16]	1.0;
M[16][16][0]	1.0;
M[16][16][26]	1.4142135623730954;
M[16][26][16]	1.4142135623730954;
M[16][26][51]	1.7320508075688785;
M[16][51][26]	1.7320508075688785;
M[17][0][17]	1.0;
M[17][17][0]	1.0;
M[17][17][29]	1.4142135623730954;
M[17][29][17]	1.4142135623730954;
M[17][29][50]	1.7320508075688785;
M[17][50][29]	1.7320508075688785;
M[18][0][18]	1.0;
M[18][18][0]	1.0;
M[18][18][31]	1.4142135623730954;
M[18][31][18]	1.4142135623730954;
M[18][31][37]	1.7320508075688785;
M[18][37][31]	1.7320508075688785;
M[19][0][19]	0.9999999999999999;
M[19][14][14]	1.4142135623730954;
M[19][14][49]	1.7320508075688785;
M[19][19][0]	0.9999999999999999;
M[19][19][19]	2.8284271247461907;
M[19][49][14]	1.7320508075688785;
M[19][49][49]	4.242640687119286;
M[20][0][20]	0.9999999999999999;
M[20][1][1]	1.4142135623730954;
M[20][1][53]	1.7320508075688785;
M[20][20][0]	0.9999999999999999;
M[20][20][20]	2.8284271247461907;
M[20][53][1]	1.7320508075688785;
M[20][53][53]	4.242640687119286;
M[21][0][21]	0.9999999999999999;
M[21][2][2]	1.4142135623730954;
M[21][2][42]	1.7320508075688785;
M[21][21][0]	0.9999999999999999;
M[21][21][21]	2.8284271247461907;
M[21][42][2]	1.7320508075688785;
M[21][42][42]	4.242640687119286;
M[22][0][22]	0.9999999999999999;
M[22][13][13]	1.4142135623730954;
M[22][13][52]	1.7320508075688785;
M[22][22][0]	0.9999999999999999;
M[22][22][22]	2.8284271247461907;
M[22][52][13]	1.7320508075688785;
M[22][52][52]	4.242640687119286;
M[23][0][23]	0.9999999999999999;
M[23][4][4]	1.4142135623730954;
M[23][4][43]	1.7320508075688785;
M[23][23][0]	0.9999999999999999;
M[23][23][23]	2.8284271247461907;
M[23][43][4]	1.7320508075688785;
M[23][43][43]	4.242640687119286;
M[24][0][24]	0.9999999999999999;
M[24][3][3]	1.4142135623730954;
M[24][3][38]	1.7320508075688785;
M[24][24][0]	0.9999999999999999;
M[24][24][24]	2.8284271247461907;
M[24][38][3]	1.7320508075688785;
M[24][38][38]	4.242640687119286;
M[25][0][25]	0.9999999999999999;
M[25][5][5]	1.4142135623730954;
M[25][5][44]	1.7320508075688785;
M[25][25][0]	0.9999999999999999;
M[25][25][25]	2.8284271247461907;
M[25][44][5]	1.7320508075688785;
M[25][44][44]	4.242640687119286;
M[26][0][26]	0.9999999999999999;
M[26][16][16]	1.4142135623730954;
M[26][16][51]	1.7320508075688785;
M[26][26][0]	0.9999999999999999;
M[26][26][26]	2.8284271247461907;
M[26][51][16]	1.7320508075688785;
M[26][51][51]	4.242640687119286;
M[27][0][27]	0.9999999999999999;
M[27][6][6]	1.4142135623730954;
M[27][6][41]	1.7320508075688785;
M[27][27][0]	0.9999999999999999;
M[27][27][27]	2.8284271247461907;
M[27][41][6]	1.7320508075688785;
M[27][41][41]	4.242640687119286;
M[28][0][28]	0.9999999999999999;
M[28][7][7]	1.4142135623730954;
M[28][7][45]	1.7320508075688785;
M[28][28][0]	0.9999999999999999;
M[28][28][28]	2.8284271247461907;
M[28][45][7]	1.7320508075688785;
M[28][45][45]	4.242640687119286;
M[29][0][29]	0.9999999999999999;
M[29][17][17]	1.4142135623730954;
M[29][17][50]	1.7320508075688785;
M[29][29][0]	0.9999999999999999;
M[29][29][29]	2.8284271247461907;
M[29][50][17]	1.7320508075688785;
M[29][50][50]	4.242640687119286;
M[30][0][30]	0.9999999999999999;
M[30][12][12]	1.4142135623730954;
M[30][12][39]	1.7320508075688785;
M[30][30][0]	0.9999999999999999;
M[30][30][30]	2.8284271247461907;
M[30][39][12]	1.7320508075688785;
M[30][39][39]	4.242640687119286;
M[31][0][31]	0.9999999999999999;
M[31][18][18]	1.4142135623730954;
M[31][18][37]	1.7320508075688785;
M[31][31][0]	0.9999999999999999;
M[31][31][31]	2.8284271247461907;
M[31][37][18]	1.7320508075688785;
M[31][37][37]	4.242640687119286;
M[32][0][32]	0.9999999999999999;
M[32][8][8]	1.4142135623730954;
M[32][8][40]	1.7320508075688785;
M[32][32][0]	0.9999999999999999;
M[32][32][32]	2.8284271247461907;
M[32][40][8]	1.7320508075688785;
M[32][40][40]	4.242640687119286;
M[33][0][33]	0.9999999999999999;
M[33][10][10]	1.4142135623730954;
M[33][10][47]	1.7320508075688785;
M[33][33][0]	0.9999999999999999;
M[33][33][33]	2.8284271247461907;
M[33][47][10]	1.7320508075688785;
M[33][47][47]	4.242640687119286;
M[34][0][34]	0.9999999999999999;
M[34][11][11]	1.4142135623730954;
M[34][11][48]	1.7320508075688785;
M[34][34][0]	0.9999999999999999;
M[34][34][34]	2.8284271247461907;
M[34][48][11]	1.7320508075688785;
M[34][48][48]	4.242640687119286;
M[35][0][35]	0.9999999999999999;
M[35][15][15]	1.4142135623730954;
M[35][15][54]	1.7320508075688785;
M[35][35][0]	0.9999999999999999;
M[35][35][35]	2.8284271247461907;
M[35][54][15]	1.7320508075688785;
M[35][54][54]	4.242640687119286;
M[36][0][36]	0.9999999999999999;
M[36][9][9]	1.4142135623730954;
M[36][9][46]	1.7320508075688785;
M[36][36][0]	0.9999999999999999;
M[36][36][36]	2.8284271247461907;
M[36][46][9]	1.7320508075688785;
M[36][46][46]	4.242640687119286;
M[37][0][37]	1.0000000000000002;
M[37][18][31]	1.7320508075688785;
M[37][31][18]	1.7320508075688785;
M[37][31][37]	4.242640687119286;
M[37][37][0]	1.0000000000000002;
M[37][37][31]	4.242640687119286;
M[38][0][38]	1.0000000000000002;
M[38][3][24]	1.7320508075688785;
M[38][24][3]	1.7320508075688785;
M[38][24][38]	4.242640687119286;
M[38][38][0]	1.0000000000000002;
M[38][38][24]	4.242640687119286;
M[39][0][39]	1.0000000000000002;
M[39][12][30]	1.7320508075688785;
M[39][30][12]	1.7320508075688785;
M[39][30][39]	4.242640687119286;
M[39][39][0]	1.0000000000000002;
M[39][39][30]	4.242640687119286;
M[40][0][40]	1.0000000000000002;
M[40][8][32]	1.7320508075688785;
M[40][32][8]	1.7320508075688785;
M[40][32][40]	4.242640687119286;
M[40][40][0]	1.0000000000000002;
M[40][40][32]	4.242640687119286;
M[41][0][41]	1.0000000000000002;
M[41][6][27]	1.7320508075688785;
M[41][27][6]	1.7320508075688785;
M[41][27][41]	4.242640687119286;
M[41][41][0]	1.0000000000000002;
M[41][41][27]	4.242640687119286;
M[42][0][42]	1.0000000000000002;
M[42][2][21]	1.7320508075688785;
M[42][21][2]	1.7320508075688785;
M[42][21][42]	4.242640687119286;
M[42][42][0]	1.0000000000000002;
M[42][42][21]	4.242640687119286;
M[43][0][43]	1.0000000000000002;
M[43][4][23]	1.7320508075688785;
M[43][23][4]	1.7320508075688785;
M[43][23][43]	4.242640687119286;
M[43][43][0]	1.0000000000000002;
M[43][43][23]	4.242640687119286;
M[44][0][44]	1.0000000000000002;
M[44][5][25]	1.7320508075688785;
M[44][25][5]	1.7320508075688785;
M[44][25][44]	4.242640687119286;
M[44][44][0]	1.0000000000000002;
M[44][44][25]	4.242640687119286;
M[45][0][45]	1.0000000000000002;
M[45][7][28]	1.7320508075688785;
M[45][28][7]	1.7320508075688785;
M[45][28][45]	4.242640687119286;
M[45][45][0]	1.0000000000000002;
M[45][45][28]	4.242640687119286;
M[46][0][46]	1.0000000000000002;
M[46][9][36]	1.7320508075688785;
M[46][36][9]	1.7320508075688785;
M[46][36][46]	4.242640687119286;
M[46][46][0]	1.0000000000000002;
M[46][46][36]	4.242640687119286;
M[47][0][47]	1.0000000000000002;
M[47][10][33]	1.7320508075688785;
M[47][33][10]	1.7320508075688785;
M[47][33][47]	4.242640687119286;
M[47][47][0]	1.0000000000000002;
M[47][47][33]	4.242640687119286;
M[48][0][48]	1.0000000000000002;
M[48][11][34]	1.7320508075688785;
M[48][34][11]	1.7320508075688785;
M[48][34][48]	4.242640687119286;
M[48][48][0]	1.0000000000000002;
M[48][48][34]	4.242640687119286;
M[49][0][49]	1.0000000000000002;
M[49][14][19]	1.7320508075688785;
M[49][19][14]	1.7320508075688785;
M[49][19][49]	4.242640687119286;
M[49][49][0]	1.0000000000000002;
M[49][49][19]	4.242640687119286;
M[50][0][50]	1.0000000000000002;
M[50][17][29]	1.7320508075688785;
M[50][29][17]	1.7320508075688785;
M[50][29][50]	4.242640687119286;
M[50][50][0]	1.0000000000000002;
M[50][50][29]	4.242640687119286;
M[51][0][51]	1.0000000000000002;
M[51][16][26]	1.7320508075688785;
M[51][26][16]	1.7320508075688785;
M[51][26][51]	4.242640687119286;
M[51][51][0]	1.0000000000000002;
M[51][51][26]	4.242640687119286;
M[52][0][52]	1.0000000000000002;
M[52][13][22]	1.7320508075688785;
M[52][22][13]	1.7320508075688785;
M[52][22][52]	4.242640687119286;
M[52][52][0]	1.0000000000000002;
M[52][52][22]	4.242640687119286;
M[53][0][53]	1.0000000000000002;
M[53][1][20]	1.7320508075688785;
M[53][20][1]	1.7320508075688785;
M[53][20][53]	4.242640687119286;
M[53][53][0]	1.0000000000000002;
M[53][53][20]	4.242640687119286;
M[54][0][54]	1.0000000000000002;
M[54][15][35]	1.7320508075688785;
M[54][35][15]	1.7320508075688785;
M[54][35][54]	4.242640687119286;
M[54][54][0]	1.0000000000000002;
M[54][54][35]	4.242640687119286;
